tests/data/test_opendss_model_p35u/Master.dss
Clear

New Circuit.Full_Network bus1=st_mat pu=1.0 basekV=230.0 R1=0.00001 X1=0.00001 R0=0.00001 X0=0.00001

Redirect p35uhs0_4/Transformers.dss
Redirect p35uhs0_4/p35uhs0_4--p35udt1/Transformers.dss
Redirect subtransmission/Transformers.dss
Redirect p35uhs0_4/Regulators.dss
Redirect p35uhs0_4/p35uhs0_4--p35udt1/Loads.dss
Redirect p35uhs0_4/LineCodes.dss
Redirect p35uhs0_4/p35uhs0_4--p35udt1/LineCodes.dss
Redirect subtransmission/LineCodes.dss
Redirect p35uhs0_4/Lines.dss
Redirect p35uhs0_4/p35uhs0_4--p35udt1/Lines.dss
Redirect subtransmission/Lines.dss
new monitor.m1 element=Line.breaker(r:p35uts0_69-st_mat)p35u_9 mode=0
new monitor.m2 element=Line.breaker(r:p35uts0_69-st_mat)p35u_9 mode=1
new energymeter.m3 Line.breaker(r:p35uts0_69-st_mat)p35u_9

Set Voltagebases=[0.12, 0.208, 0.48, 2.309, 4.0, 69.0, 230.0]

Calcvoltagebases

Buscoords Buscoords.dss
set maxcontroliter=50
